<?xml version="1.0" encoding="UTF-8"?>

<!-- generated on 2023-04-01 12:20:18 by Eclipse SUMO netedit Version 1.14.1
<configuration xmlns:xsi="http://www.w3.org/2001/XMLSchema-instance" xsi:noNamespaceSchemaLocation="http://sumo.dlr.de/xsd/netconvertConfiguration.xsd">

    <input>
        <sumo-net-file value="F:\Rachis_systems\single_intersection\Networks\4-way%20intersection\network.net.xml"/>
    </input>

    <output>
        <output-file value="F:\Rachis_systems\single_intersection\Networks\4-way%20intersection\network.net.xml"/>
    </output>

    <processing>
        <geometry.min-radius.fix.railways value="false"/>
        <geometry.max-grade.fix value="false"/>
        <offset.disable-normalization value="true"/>
        <lefthand value="false"/>
    </processing>

    <junctions>
        <no-internal-links value="false"/>
        <no-turnarounds value="true"/>
        <junctions.corner-detail value="5"/>
        <junctions.limit-turn-speed value="5.5"/>
        <rectangular-lane-cut value="false"/>
    </junctions>

    <pedestrian>
        <walkingareas value="false"/>
    </pedestrian>

</configuration>
-->

<net version="1.9" junctionCornerDetail="5" limitTurnSpeed="5.50" xmlns:xsi="http://www.w3.org/2001/XMLSchema-instance" xsi:noNamespaceSchemaLocation="http://sumo.dlr.de/xsd/net_file.xsd">

    <location netOffset="0.00,0.00" convBoundary="-100.00,-100.00,100.00,100.00" origBoundary="-10000000000.00,-10000000000.00,10000000000.00,10000000000.00" projParameter="!"/>

    <edge id=":J0_w0" function="walkingarea">
        <lane id=":J0_w0_0" index="0" allow="pedestrian" speed="1.00" length="14.80" width="2.00" shape="-100.00,-6.40 -100.00,-8.40 -100.00,8.40 -100.00,6.40"/>
    </edge>
    <edge id=":J1_0" function="internal">
        <lane id=":J1_0_0" index="0" disallow="pedestrian" speed="6.51" length="4.75" shape="-4.80,10.40 -5.15,7.95 -6.20,6.20 -6.40,6.08"/>
    </edge>
    <edge id=":J1_1" function="internal">
        <lane id=":J1_1_0" index="0" disallow="pedestrian" speed="13.89" length="20.80" shape="-4.80,10.40 -4.80,-10.40"/>
        <lane id=":J1_1_1" index="1" disallow="pedestrian" speed="13.89" length="20.80" shape="-1.60,10.40 -1.60,-10.40"/>
    </edge>
    <edge id=":J1_3" function="internal">
        <lane id=":J1_3_0" index="0" disallow="pedestrian" speed="9.26" length="5.01" shape="-1.60,10.40 -0.89,5.44"/>
    </edge>
    <edge id=":J1_16" function="internal">
        <lane id=":J1_16_0" index="0" disallow="pedestrian" speed="6.51" length="4.28" shape="-6.40,6.08 -7.95,5.15 -10.40,4.80"/>
    </edge>
    <edge id=":J1_17" function="internal">
        <lane id=":J1_17_0" index="0" disallow="pedestrian" speed="9.26" length="14.34" shape="-0.89,5.44 -0.85,5.15 1.40,1.40 5.15,-0.85 10.40,-1.60"/>
    </edge>
    <edge id=":J1_4" function="internal">
        <lane id=":J1_4_0" index="0" disallow="pedestrian" speed="6.51" length="4.75" shape="10.40,4.80 7.95,5.15 6.20,6.20 6.08,6.40"/>
    </edge>
    <edge id=":J1_5" function="internal">
        <lane id=":J1_5_0" index="0" disallow="pedestrian" speed="13.89" length="20.80" shape="10.40,4.80 -10.40,4.80"/>
        <lane id=":J1_5_1" index="1" disallow="pedestrian" speed="13.89" length="20.80" shape="10.40,1.60 -10.40,1.60"/>
    </edge>
    <edge id=":J1_7" function="internal">
        <lane id=":J1_7_0" index="0" disallow="pedestrian" speed="9.26" length="5.01" shape="10.40,1.60 5.44,0.89"/>
    </edge>
    <edge id=":J1_18" function="internal">
        <lane id=":J1_18_0" index="0" disallow="pedestrian" speed="6.51" length="4.28" shape="6.08,6.40 5.15,7.95 4.80,10.40"/>
    </edge>
    <edge id=":J1_19" function="internal">
        <lane id=":J1_19_0" index="0" disallow="pedestrian" speed="9.26" length="14.34" shape="5.44,0.89 5.15,0.85 1.40,-1.40 -0.85,-5.15 -1.60,-10.40"/>
    </edge>
    <edge id=":J1_8" function="internal">
        <lane id=":J1_8_0" index="0" disallow="pedestrian" speed="6.51" length="4.75" shape="4.80,-10.40 5.15,-7.95 6.20,-6.20 6.40,-6.08"/>
    </edge>
    <edge id=":J1_9" function="internal">
        <lane id=":J1_9_0" index="0" disallow="pedestrian" speed="13.89" length="20.80" shape="4.80,-10.40 4.80,10.40"/>
        <lane id=":J1_9_1" index="1" disallow="pedestrian" speed="13.89" length="20.80" shape="1.60,-10.40 1.60,10.40"/>
    </edge>
    <edge id=":J1_11" function="internal">
        <lane id=":J1_11_0" index="0" disallow="pedestrian" speed="9.26" length="5.01" shape="1.60,-10.40 0.89,-5.44"/>
    </edge>
    <edge id=":J1_20" function="internal">
        <lane id=":J1_20_0" index="0" disallow="pedestrian" speed="6.51" length="4.28" shape="6.40,-6.08 7.95,-5.15 10.40,-4.80"/>
    </edge>
    <edge id=":J1_21" function="internal">
        <lane id=":J1_21_0" index="0" disallow="pedestrian" speed="9.26" length="14.34" shape="0.89,-5.44 0.85,-5.15 -1.40,-1.40 -5.15,0.85 -10.40,1.60"/>
    </edge>
    <edge id=":J1_12" function="internal">
        <lane id=":J1_12_0" index="0" disallow="pedestrian" speed="6.51" length="4.75" shape="-10.40,-4.80 -7.95,-5.15 -6.20,-6.20 -6.08,-6.40"/>
    </edge>
    <edge id=":J1_13" function="internal">
        <lane id=":J1_13_0" index="0" disallow="pedestrian" speed="13.89" length="20.80" shape="-10.40,-4.80 10.40,-4.80"/>
        <lane id=":J1_13_1" index="1" disallow="pedestrian" speed="13.89" length="20.80" shape="-10.40,-1.60 10.40,-1.60"/>
    </edge>
    <edge id=":J1_15" function="internal">
        <lane id=":J1_15_0" index="0" disallow="pedestrian" speed="9.26" length="5.01" shape="-10.40,-1.60 -5.44,-0.89"/>
    </edge>
    <edge id=":J1_22" function="internal">
        <lane id=":J1_22_0" index="0" disallow="pedestrian" speed="6.51" length="4.28" shape="-6.08,-6.40 -5.15,-7.95 -4.80,-10.40"/>
    </edge>
    <edge id=":J1_23" function="internal">
        <lane id=":J1_23_0" index="0" disallow="pedestrian" speed="9.26" length="14.34" shape="-5.44,-0.89 -5.15,-0.85 -1.40,1.40 0.85,5.15 1.60,10.40"/>
    </edge>
    <edge id=":J1_c0" function="crossing" crossingEdges="E2 -E2">
        <lane id=":J1_c0_0" index="0" allow="pedestrian" speed="1.00" length="12.80" width="4.00" shape="6.40,8.40 -6.40,8.40"/>
    </edge>
    <edge id=":J1_c1" function="crossing" crossingEdges="E1 -E1">
        <lane id=":J1_c1_0" index="0" allow="pedestrian" speed="1.00" length="12.80" width="4.00" shape="8.40,-6.40 8.40,6.40"/>
    </edge>
    <edge id=":J1_c2" function="crossing" crossingEdges="E3 -E3">
        <lane id=":J1_c2_0" index="0" allow="pedestrian" speed="1.00" length="12.80" width="4.00" shape="-6.40,-8.40 6.40,-8.40"/>
    </edge>
    <edge id=":J1_c3" function="crossing" crossingEdges="-E0 E0">
        <lane id=":J1_c3_0" index="0" allow="pedestrian" speed="1.00" length="12.80" width="4.00" shape="-8.40,6.40 -8.40,-6.40"/>
    </edge>
    <edge id=":J1_w0" function="walkingarea">
        <lane id=":J1_w0_0" index="0" allow="pedestrian" speed="1.00" length="3.30" width="4.00" shape="-10.40,6.40 -10.40,8.40 -8.40,10.40 -6.40,10.40 -6.51,9.18 -6.84,8.18 -7.40,7.40 -8.18,6.84 -9.18,6.51"/>
    </edge>
    <edge id=":J1_w1" function="walkingarea">
        <lane id=":J1_w1_0" index="0" allow="pedestrian" speed="1.00" length="3.30" width="4.00" shape="6.40,10.40 8.40,10.40 10.40,8.40 10.40,6.40 9.18,6.51 8.18,6.84 7.40,7.40 6.84,8.18 6.51,9.18"/>
    </edge>
    <edge id=":J1_w2" function="walkingarea">
        <lane id=":J1_w2_0" index="0" allow="pedestrian" speed="1.00" length="3.30" width="4.00" shape="10.40,-6.40 10.40,-8.40 8.40,-10.40 6.40,-10.40 6.51,-9.18 6.84,-8.18 7.40,-7.40 8.18,-6.84 9.18,-6.51"/>
    </edge>
    <edge id=":J1_w3" function="walkingarea">
        <lane id=":J1_w3_0" index="0" allow="pedestrian" speed="1.00" length="3.30" width="4.00" shape="-6.40,-10.40 -8.40,-10.40 -10.40,-8.40 -10.40,-6.40 -9.18,-6.51 -8.18,-6.84 -7.40,-7.40 -6.84,-8.18 -6.51,-9.18"/>
    </edge>
    <edge id=":J2_w0" function="walkingarea">
        <lane id=":J2_w0_0" index="0" allow="pedestrian" speed="1.00" length="14.80" width="2.00" shape="100.00,6.40 100.00,8.40 100.00,-8.40 100.00,-6.40"/>
    </edge>
    <edge id=":J3_w0" function="walkingarea">
        <lane id=":J3_w0_0" index="0" allow="pedestrian" speed="1.00" length="14.80" width="2.00" shape="-6.40,100.00 -8.40,100.00 8.40,100.00 6.40,100.00"/>
    </edge>
    <edge id=":J4_w0" function="walkingarea">
        <lane id=":J4_w0_0" index="0" allow="pedestrian" speed="1.00" length="14.80" width="2.00" shape="6.40,-100.00 8.40,-100.00 -8.40,-100.00 -6.40,-100.00"/>
    </edge>

    <edge id="-E0" from="J1" to="J0" priority="-1">
        <lane id="-E0_0" index="0" allow="pedestrian" speed="13.89" length="89.60" width="2.00" shape="-10.40,7.40 -100.00,7.40"/>
        <lane id="-E0_1" index="1" disallow="pedestrian" speed="13.89" length="89.60" shape="-10.40,4.80 -100.00,4.80"/>
        <lane id="-E0_2" index="2" disallow="pedestrian" speed="13.89" length="89.60" shape="-10.40,1.60 -100.00,1.60"/>
    </edge>
    <edge id="-E1" from="J2" to="J1" priority="-1">
        <lane id="-E1_0" index="0" allow="pedestrian" speed="13.89" length="89.60" width="2.00" shape="100.00,7.40 10.40,7.40"/>
        <lane id="-E1_1" index="1" disallow="pedestrian" speed="13.89" length="89.60" shape="100.00,4.80 10.40,4.80"/>
        <lane id="-E1_2" index="2" disallow="pedestrian" speed="13.89" length="89.60" shape="100.00,1.60 10.40,1.60"/>
    </edge>
    <edge id="-E2" from="J3" to="J1" priority="-1">
        <lane id="-E2_0" index="0" allow="pedestrian" speed="13.89" length="89.60" width="2.00" shape="-7.40,100.00 -7.40,10.40"/>
        <lane id="-E2_1" index="1" disallow="pedestrian" speed="13.89" length="89.60" shape="-4.80,100.00 -4.80,10.40"/>
        <lane id="-E2_2" index="2" disallow="pedestrian" speed="13.89" length="89.60" shape="-1.60,100.00 -1.60,10.40"/>
    </edge>
    <edge id="-E3" from="J4" to="J1" priority="-1">
        <lane id="-E3_0" index="0" allow="pedestrian" speed="13.89" length="89.60" width="2.00" shape="7.40,-100.00 7.40,-10.40"/>
        <lane id="-E3_1" index="1" disallow="pedestrian" speed="13.89" length="89.60" shape="4.80,-100.00 4.80,-10.40"/>
        <lane id="-E3_2" index="2" disallow="pedestrian" speed="13.89" length="89.60" shape="1.60,-100.00 1.60,-10.40"/>
    </edge>
    <edge id="E0" from="J0" to="J1" priority="-1">
        <lane id="E0_0" index="0" allow="pedestrian" speed="13.89" length="89.60" width="2.00" shape="-100.00,-7.40 -10.40,-7.40"/>
        <lane id="E0_1" index="1" disallow="pedestrian" speed="13.89" length="89.60" shape="-100.00,-4.80 -10.40,-4.80"/>
        <lane id="E0_2" index="2" disallow="pedestrian" speed="13.89" length="89.60" shape="-100.00,-1.60 -10.40,-1.60"/>
    </edge>
    <edge id="E1" from="J1" to="J2" priority="-1">
        <lane id="E1_0" index="0" allow="pedestrian" speed="13.89" length="89.60" width="2.00" shape="10.40,-7.40 100.00,-7.40"/>
        <lane id="E1_1" index="1" disallow="pedestrian" speed="13.89" length="89.60" shape="10.40,-4.80 100.00,-4.80"/>
        <lane id="E1_2" index="2" disallow="pedestrian" speed="13.89" length="89.60" shape="10.40,-1.60 100.00,-1.60"/>
    </edge>
    <edge id="E2" from="J1" to="J3" priority="-1">
        <lane id="E2_0" index="0" allow="pedestrian" speed="13.89" length="89.60" width="2.00" shape="7.40,10.40 7.40,100.00"/>
        <lane id="E2_1" index="1" disallow="pedestrian" speed="13.89" length="89.60" shape="4.80,10.40 4.80,100.00"/>
        <lane id="E2_2" index="2" disallow="pedestrian" speed="13.89" length="89.60" shape="1.60,10.40 1.60,100.00"/>
    </edge>
    <edge id="E3" from="J1" to="J4" priority="-1">
        <lane id="E3_0" index="0" allow="pedestrian" speed="13.89" length="89.60" width="2.00" shape="-7.40,-10.40 -7.40,-100.00"/>
        <lane id="E3_1" index="1" disallow="pedestrian" speed="13.89" length="89.60" shape="-4.80,-10.40 -4.80,-100.00"/>
        <lane id="E3_2" index="2" disallow="pedestrian" speed="13.89" length="89.60" shape="-1.60,-10.40 -1.60,-100.00"/>
    </edge>

    <tlLogic id="J1" type="static" programID="0" offset="0">
        <phase duration="37" state="gGGgrrrrgGGgrrrrrGrG"/>
        <phase duration="5"  state="gGGgrrrrgGGgrrrrrrrr"/>
        <phase duration="3"  state="yyyyrrrryyyyrrrrrrrr"/>
        <phase duration="37" state="rrrrgGGgrrrrgGGgGrGr"/>
        <phase duration="5"  state="rrrrgGGgrrrrgGGgrrrr"/>
        <phase duration="3"  state="rrrryyyyrrrryyyyrrrr"/>
    </tlLogic>

    <junction id="J0" type="dead_end" x="-100.00" y="0.00" incLanes="-E0_0 -E0_1 -E0_2" intLanes="" shape="-100.00,0.00 -100.00,8.40 -100.00,0.00"/>
    <junction id="J1" type="traffic_light" x="0.00" y="0.00" incLanes="-E2_0 -E2_1 -E2_2 -E1_0 -E1_1 -E1_2 -E3_0 -E3_1 -E3_2 E0_0 E0_1 E0_2 :J1_w1_0 :J1_w2_0 :J1_w3_0 :J1_w0_0" intLanes=":J1_16_0 :J1_1_0 :J1_1_1 :J1_17_0 :J1_18_0 :J1_5_0 :J1_5_1 :J1_19_0 :J1_20_0 :J1_9_0 :J1_9_1 :J1_21_0 :J1_22_0 :J1_13_0 :J1_13_1 :J1_23_0 :J1_c0_0 :J1_c1_0 :J1_c2_0 :J1_c3_0" shape="-8.40,10.40 8.40,10.40 8.62,9.29 8.90,8.90 9.29,8.62 9.79,8.46 10.40,8.40 10.40,-8.40 9.29,-8.62 8.90,-8.90 8.62,-9.29 8.46,-9.79 8.40,-10.40 -8.40,-10.40 -8.62,-9.29 -8.90,-8.90 -9.29,-8.62 -9.79,-8.46 -10.40,-8.40 -10.40,8.40 -9.29,8.62 -8.90,8.90 -8.62,9.29 -8.46,9.79">
        <request index="0"  response="10010000000000000000" foes="10010000000001100000" cont="1"/>
        <request index="1"  response="01011001000010000000" foes="01011111100011100000" cont="0"/>
        <request index="2"  response="01011001000010000000" foes="01011111100011100000" cont="0"/>
        <request index="3"  response="00111000011010000000" foes="00111110011011100000" cont="1"/>
        <request index="4"  response="00110000011000000000" foes="00110000011000000000" cont="1"/>
        <request index="5"  response="10100000111000001111" foes="10101000111000001111" cont="0"/>
        <request index="6"  response="10100000111000001111" foes="10101000111000001111" cont="0"/>
        <request index="7"  response="01100110111000001110" foes="01100110111000001110" cont="1"/>
        <request index="8"  response="01100000000000000000" foes="01100110000000000000" cont="1"/>
        <request index="9"  response="01011000000010010000" foes="01011110000011111000" cont="0"/>
        <request index="10" response="01011000000010010000" foes="01011110000011111000" cont="0"/>
        <request index="11" response="11001000000010000110" foes="11001110000011100110" cont="1"/>
        <request index="12" response="11000000000000000110" foes="11000000000000000110" cont="1"/>
        <request index="13" response="10100000111100001110" foes="10100000111110001110" cont="0"/>
        <request index="14" response="10100000111100001110" foes="10100000111110001110" cont="0"/>
        <request index="15" response="10010000111001101110" foes="10010000111001101110" cont="1"/>
        <request index="16" response="00000000000000000000" foes="00001000011000011111" cont="0"/>
        <request index="17" response="00000000000000000000" foes="00000110000111111000" cont="0"/>
        <request index="18" response="00000000000000000000" foes="00000001111110000110" cont="0"/>
        <request index="19" response="00000000000000000000" foes="00001111100001100001" cont="0"/>
    </junction>
    <junction id="J2" type="dead_end" x="100.00" y="0.00" incLanes="E1_0 E1_1 E1_2" intLanes="" shape="100.00,0.00 100.00,-8.40 100.00,0.00"/>
    <junction id="J3" type="dead_end" x="0.00" y="100.00" incLanes="E2_0 E2_1 E2_2" intLanes="" shape="0.00,100.00 8.40,100.00 0.00,100.00"/>
    <junction id="J4" type="dead_end" x="0.00" y="-100.00" incLanes="E3_0 E3_1 E3_2" intLanes="" shape="0.00,-100.00 -8.40,-100.00 0.00,-100.00"/>

    <junction id=":J1_16_0" type="internal" x="-6.40" y="6.08" incLanes=":J1_0_0" intLanes=":J1_5_0 :J1_5_1 :J1_11_0 :J1_c0_0 :J1_c3_0"/>
    <junction id=":J1_17_0" type="internal" x="-0.89" y="5.44" incLanes=":J1_3_0 -E3_1 -E3_2" intLanes=":J1_5_0 :J1_5_1 :J1_7_0 :J1_8_0 :J1_9_0 :J1_9_1 :J1_13_0 :J1_13_1 :J1_15_0 :J1_c0_0 :J1_c1_0"/>
    <junction id=":J1_18_0" type="internal" x="6.08" y="6.40" incLanes=":J1_4_0" intLanes=":J1_9_0 :J1_9_1 :J1_15_0 :J1_c0_0 :J1_c1_0"/>
    <junction id=":J1_19_0" type="internal" x="5.44" y="0.89" incLanes=":J1_7_0 E0_1 E0_2" intLanes=":J1_1_0 :J1_1_1 :J1_3_0 :J1_9_0 :J1_9_1 :J1_11_0 :J1_12_0 :J1_13_0 :J1_13_1 :J1_c1_0 :J1_c2_0"/>
    <junction id=":J1_20_0" type="internal" x="6.40" y="-6.08" incLanes=":J1_8_0" intLanes=":J1_3_0 :J1_13_0 :J1_13_1 :J1_c1_0 :J1_c2_0"/>
    <junction id=":J1_21_0" type="internal" x="0.89" y="-5.44" incLanes=":J1_11_0 -E2_1 -E2_2" intLanes=":J1_0_0 :J1_1_0 :J1_1_1 :J1_5_0 :J1_5_1 :J1_7_0 :J1_13_0 :J1_13_1 :J1_15_0 :J1_c2_0 :J1_c3_0"/>
    <junction id=":J1_22_0" type="internal" x="-6.08" y="-6.40" incLanes=":J1_12_0" intLanes=":J1_1_0 :J1_1_1 :J1_7_0 :J1_c2_0 :J1_c3_0"/>
    <junction id=":J1_23_0" type="internal" x="-5.44" y="-0.89" incLanes=":J1_15_0 -E1_1 -E1_2" intLanes=":J1_1_0 :J1_1_1 :J1_3_0 :J1_4_0 :J1_5_0 :J1_5_1 :J1_9_0 :J1_9_1 :J1_11_0 :J1_c0_0 :J1_c3_0"/>

    <connection from="-E1" to="E2" fromLane="1" toLane="1" via=":J1_4_0" tl="J1" linkIndex="4" dir="r" state="o"/>
    <connection from="-E1" to="-E0" fromLane="1" toLane="1" via=":J1_5_0" tl="J1" linkIndex="5" dir="s" state="o"/>
    <connection from="-E1" to="-E0" fromLane="2" toLane="2" via=":J1_5_1" tl="J1" linkIndex="6" dir="s" state="o"/>
    <connection from="-E1" to="E3" fromLane="2" toLane="2" via=":J1_7_0" tl="J1" linkIndex="7" dir="l" state="o"/>
    <connection from="-E2" to="-E0" fromLane="1" toLane="1" via=":J1_0_0" tl="J1" linkIndex="0" dir="r" state="o"/>
    <connection from="-E2" to="E3" fromLane="1" toLane="1" via=":J1_1_0" tl="J1" linkIndex="1" dir="s" state="o"/>
    <connection from="-E2" to="E3" fromLane="2" toLane="2" via=":J1_1_1" tl="J1" linkIndex="2" dir="s" state="o"/>
    <connection from="-E2" to="E1" fromLane="2" toLane="2" via=":J1_3_0" tl="J1" linkIndex="3" dir="l" state="o"/>
    <connection from="-E3" to="E1" fromLane="1" toLane="1" via=":J1_8_0" tl="J1" linkIndex="8" dir="r" state="o"/>
    <connection from="-E3" to="E2" fromLane="1" toLane="1" via=":J1_9_0" tl="J1" linkIndex="9" dir="s" state="o"/>
    <connection from="-E3" to="E2" fromLane="2" toLane="2" via=":J1_9_1" tl="J1" linkIndex="10" dir="s" state="o"/>
    <connection from="-E3" to="-E0" fromLane="2" toLane="2" via=":J1_11_0" tl="J1" linkIndex="11" dir="l" state="o"/>
    <connection from="E0" to="E3" fromLane="1" toLane="1" via=":J1_12_0" tl="J1" linkIndex="12" dir="r" state="o"/>
    <connection from="E0" to="E1" fromLane="1" toLane="1" via=":J1_13_0" tl="J1" linkIndex="13" dir="s" state="o"/>
    <connection from="E0" to="E1" fromLane="2" toLane="2" via=":J1_13_1" tl="J1" linkIndex="14" dir="s" state="o"/>
    <connection from="E0" to="E2" fromLane="2" toLane="2" via=":J1_15_0" tl="J1" linkIndex="15" dir="l" state="o"/>

    <connection from=":J1_0" to="-E0" fromLane="0" toLane="1" via=":J1_16_0" dir="r" state="m"/>
    <connection from=":J1_16" to="-E0" fromLane="0" toLane="1" dir="r" state="m"/>
    <connection from=":J1_1" to="E3" fromLane="0" toLane="1" dir="s" state="M"/>
    <connection from=":J1_1" to="E3" fromLane="1" toLane="2" dir="s" state="M"/>
    <connection from=":J1_3" to="E1" fromLane="0" toLane="2" via=":J1_17_0" dir="l" state="m"/>
    <connection from=":J1_17" to="E1" fromLane="0" toLane="2" dir="l" state="m"/>
    <connection from=":J1_4" to="E2" fromLane="0" toLane="1" via=":J1_18_0" dir="r" state="m"/>
    <connection from=":J1_18" to="E2" fromLane="0" toLane="1" dir="r" state="m"/>
    <connection from=":J1_5" to="-E0" fromLane="0" toLane="1" dir="s" state="M"/>
    <connection from=":J1_5" to="-E0" fromLane="1" toLane="2" dir="s" state="M"/>
    <connection from=":J1_7" to="E3" fromLane="0" toLane="2" via=":J1_19_0" dir="l" state="m"/>
    <connection from=":J1_19" to="E3" fromLane="0" toLane="2" dir="l" state="m"/>
    <connection from=":J1_8" to="E1" fromLane="0" toLane="1" via=":J1_20_0" dir="r" state="m"/>
    <connection from=":J1_20" to="E1" fromLane="0" toLane="1" dir="r" state="m"/>
    <connection from=":J1_9" to="E2" fromLane="0" toLane="1" dir="s" state="M"/>
    <connection from=":J1_9" to="E2" fromLane="1" toLane="2" dir="s" state="M"/>
    <connection from=":J1_11" to="-E0" fromLane="0" toLane="2" via=":J1_21_0" dir="l" state="m"/>
    <connection from=":J1_21" to="-E0" fromLane="0" toLane="2" dir="l" state="m"/>
    <connection from=":J1_12" to="E3" fromLane="0" toLane="1" via=":J1_22_0" dir="r" state="m"/>
    <connection from=":J1_22" to="E3" fromLane="0" toLane="1" dir="r" state="m"/>
    <connection from=":J1_13" to="E1" fromLane="0" toLane="1" dir="s" state="M"/>
    <connection from=":J1_13" to="E1" fromLane="1" toLane="2" dir="s" state="M"/>
    <connection from=":J1_15" to="E2" fromLane="0" toLane="2" via=":J1_23_0" dir="l" state="m"/>
    <connection from=":J1_23" to="E2" fromLane="0" toLane="2" dir="l" state="m"/>

    <connection from=":J0_w0" to="E0" fromLane="0" toLane="0" dir="s" state="M"/>
    <connection from="-E0" to=":J0_w0" fromLane="0" toLane="0" dir="s" state="M"/>
    <connection from=":J1_c0" to=":J1_w0" fromLane="0" toLane="0" dir="s" state="M"/>
    <connection from=":J1_c1" to=":J1_w1" fromLane="0" toLane="0" dir="s" state="M"/>
    <connection from=":J1_c2" to=":J1_w2" fromLane="0" toLane="0" dir="s" state="M"/>
    <connection from=":J1_c3" to=":J1_w3" fromLane="0" toLane="0" dir="s" state="M"/>
    <connection from=":J1_w0" to=":J1_c3" fromLane="0" toLane="0" tl="J1" linkIndex="19" dir="s" state="M"/>
    <connection from=":J1_w0" to="-E0" fromLane="0" toLane="0" dir="s" state="M"/>
    <connection from="-E2" to=":J1_w0" fromLane="0" toLane="0" dir="s" state="M"/>
    <connection from=":J1_w1" to=":J1_c0" fromLane="0" toLane="0" tl="J1" linkIndex="16" dir="s" state="M"/>
    <connection from=":J1_w1" to="E2" fromLane="0" toLane="0" dir="s" state="M"/>
    <connection from="-E1" to=":J1_w1" fromLane="0" toLane="0" dir="s" state="M"/>
    <connection from=":J1_w2" to=":J1_c1" fromLane="0" toLane="0" tl="J1" linkIndex="17" dir="s" state="M"/>
    <connection from=":J1_w2" to="E1" fromLane="0" toLane="0" dir="s" state="M"/>
    <connection from="-E3" to=":J1_w2" fromLane="0" toLane="0" dir="s" state="M"/>
    <connection from=":J1_w3" to=":J1_c2" fromLane="0" toLane="0" tl="J1" linkIndex="18" dir="s" state="M"/>
    <connection from=":J1_w3" to="E3" fromLane="0" toLane="0" dir="s" state="M"/>
    <connection from="E0" to=":J1_w3" fromLane="0" toLane="0" dir="s" state="M"/>
    <connection from=":J2_w0" to="-E1" fromLane="0" toLane="0" dir="s" state="M"/>
    <connection from="E1" to=":J2_w0" fromLane="0" toLane="0" dir="s" state="M"/>
    <connection from=":J3_w0" to="-E2" fromLane="0" toLane="0" dir="s" state="M"/>
    <connection from="E2" to=":J3_w0" fromLane="0" toLane="0" dir="s" state="M"/>
    <connection from=":J4_w0" to="-E3" fromLane="0" toLane="0" dir="s" state="M"/>
    <connection from="E3" to=":J4_w0" fromLane="0" toLane="0" dir="s" state="M"/>
</net>
